42
TV: (2.5243712088 -0.0000000000 0.0000000000) (0.0000000000 5.0487424177 0.0000000000)
 C         0.0000000000       1.2621856044      -8.0325000000
 C         1.2621856044       1.2621856044      -8.9250000000
 C         0.0000000000       0.0000000000      -7.1400000000
 C         1.2621856044      -0.0000000000      -6.2475000000
 C         0.0000000000       3.7865568133      -8.0325000000
 C         1.2621856044       3.7865568133      -8.9250000000
 C         0.0000000000       2.5243712088      -7.1400000000
 C         1.2621856044       2.5243712088      -6.2475000000
 C         0.0000000000       1.2621856044      -4.4625000000
 C         1.2621856044       1.2621856044      -5.3550000000
 C         0.0000000000       0.0000000000      -3.5700000000
 C         1.2621856044      -0.0000000000      -2.6775000000
 C         0.0000000000       3.7865568133      -4.4625000000
 C         1.2621856044       3.7865568133      -5.3550000000
 C         0.0000000000       2.5243712088      -3.5700000000
 C         1.2621856044       2.5243712088      -2.6775000000
 C         0.0000000000       1.2621856044      -0.8925000000
 C         1.2621856044       1.2621856044      -1.7850000000
 C         0.0000000000       0.0000000000       0.0000000000
 C         1.2621856044      -0.0000000000       0.8925000000
 C         0.0000000000       3.7865568133      -0.8925000000
 C         1.2621856044       3.7865568133      -1.7850000000
 C         0.0000000000       2.5243712088       0.0000000000
 C         1.2621856044       2.5243712088       0.8925000000
 C         0.0000000000       1.2621856044       2.6775000000
 C         1.2621856044       1.2621856044       1.7850000000
 C         0.0000000000       0.0000000000       3.5700000000
 C         1.2621856044      -0.0000000000       4.4625000000
 C         0.0000000000       3.7865568133       2.6775000000
 C         1.2621856044       3.7865568133       1.7850000000
 C         0.0000000000       2.5243712088       3.5700000000
 C         1.2621856044       2.5243712088       4.4625000000
 C         0.0000000000       1.2621856044       6.2475000000
 C         1.2621856044       1.2621856044       5.3550000000
 C         0.0000000000       0.0000000000       7.1400000000
 C         1.2621856044      -0.0000000000       8.0325000000
 C         0.0000000000       3.7865568133       6.2475000000
 C         1.2621856044       3.7865568133       5.3550000000
 C         0.0000000000       2.5243712088       7.1400000000
 C         1.2621856044       2.5243712088       8.0325000000
 C         1.2621856044       1.2621856044       8.9250000000
 C         1.2621856044       3.7865568133       8.9250000000
