216
TV: (7.9827626797 0.0000000000 0.0000000000) (1.5965525359 7.8214781212 -0.0000000000)
 C         0.0000000000      -0.0000000000      -8.7446783817
 C         0.3991381340       0.3258949217      -7.2872319848
 C         0.0000000000      -0.0000000000      -4.3723391909
 C         0.3991381340       0.3258949217      -2.9148927939
 C         0.0000000000       0.0000000000       0.0000000000
 C         0.3991381340       0.3258949217       1.4574463970
 C         0.0000000000       0.0000000000       4.3723391909
 C         0.3991381340       0.3258949217       5.8297855878
 C        -0.0000000000       0.0000000000       8.7446783817
 C         2.3948288039       0.3258949217      -9.4734015802
 C         2.7939669379       0.6517898434      -8.0159551833
 C         0.7982762680       2.2812644520      -9.4734015802
 C         1.1974144020       2.6071593737      -8.0159551833
 C         1.5965525359       1.3035796869      -7.2872319848
 C         1.9956906699       1.6294746086      -5.8297855878
 C         2.3948288039       0.3258949217      -5.1010623893
 C         2.7939669379       0.6517898434      -3.6436159924
 C         0.7982762680       2.2812644520      -5.1010623893
 C         1.1974144020       2.6071593737      -3.6436159924
 C         1.5965525359       1.3035796869      -2.9148927939
 C         1.9956906699       1.6294746086      -1.4574463970
 C         2.3948288039       0.3258949217      -0.7287231985
 C         2.7939669379       0.6517898434       0.7287231985
 C         0.7982762680       2.2812644520      -0.7287231985
 C         1.1974144020       2.6071593737       0.7287231985
 C         1.5965525359       1.3035796869       1.4574463970
 C         1.9956906699       1.6294746086       2.9148927939
 C         2.3948288039       0.3258949217       3.6436159924
 C         2.7939669379       0.6517898434       5.1010623893
 C         0.7982762680       2.2812644520       3.6436159924
 C         1.1974144020       2.6071593737       5.1010623893
 C         1.5965525359       1.3035796869       5.8297855878
 C         1.9956906699       1.6294746086       7.2872319848
 C         2.3948288039       0.3258949217       8.0159551833
 C         2.7939669379       0.6517898434       9.4734015802
 C         0.7982762680       2.2812644520       8.0159551833
 C         1.1974144020       2.6071593737       9.4734015802
 C         5.1887957418       0.9776847651      -8.7446783817
 C         5.9870720098      -0.0000000000      -6.5585087863
 C         3.5922432059       2.9330542954      -8.7446783817
 C         3.9913813398       1.6294746086      -8.0159551833
 C         4.3905194738       1.9553695303      -6.5585087863
 C         4.7896576078       0.6517898434      -5.8297855878
 C         5.1887957418       0.9776847651      -4.3723391909
 C         5.9870720098      -0.0000000000      -2.1861695954
 C         1.9956906699       4.8884238257      -8.7446783817
 C         2.3948288039       3.5848441389      -8.0159551833
 C         2.7939669379       3.9107390606      -6.5585087863
 C         3.1931050719       2.6071593737      -5.8297855878
 C         3.5922432059       2.9330542954      -4.3723391909
 C         3.9913813398       1.6294746086      -3.6436159924
 C         4.3905194738       1.9553695303      -2.1861695954
 C         4.7896576078       0.6517898434      -1.4574463970
 C         5.1887957418       0.9776847651      -0.0000000000
 C         5.9870720098       0.0000000000       2.1861695954
 C         1.1974144020       5.8661085909      -6.5585087863
 C         1.5965525359       4.5625289040      -5.8297855878
 C         1.9956906699       4.8884238257      -4.3723391909
 C         2.3948288039       3.5848441389      -3.6436159924
 C         2.7939669379       3.9107390606      -2.1861695954
 C         3.1931050719       2.6071593737      -1.4574463970
 C         3.5922432059       2.9330542954      -0.0000000000
 C         3.9913813398       1.6294746086       0.7287231985
 C         4.3905194738       1.9553695303       2.1861695954
 C         4.7896576078       0.6517898434       2.9148927939
 C         5.1887957418       0.9776847651       4.3723391909
 C         5.9870720098       0.0000000000       6.5585087863
 C         1.1974144020       5.8661085909      -2.1861695954
 C         1.5965525359       4.5625289040      -1.4574463970
 C         1.9956906699       4.8884238257      -0.0000000000
 C         2.3948288039       3.5848441389       0.7287231985
 C         2.7939669379       3.9107390606       2.1861695954
 C         3.1931050719       2.6071593737       2.9148927939
 C         3.5922432059       2.9330542954       4.3723391909
 C         3.9913813398       1.6294746086       5.1010623893
 C         4.3905194738       1.9553695303       6.5585087863
 C         4.7896576078       0.6517898434       7.2872319848
 C         5.1887957418       0.9776847651       8.7446783817
 C         1.1974144020       5.8661085909       2.1861695954
 C         1.5965525359       4.5625289040       2.9148927939
 C         1.9956906699       4.8884238257       4.3723391909
 C         2.3948288039       3.5848441389       5.1010623893
 C         2.7939669379       3.9107390606       6.5585087863
 C         3.1931050719       2.6071593737       7.2872319848
 C         3.5922432059       2.9330542954       8.7446783817
 C         3.9913813398       1.6294746086       9.4734015802
 C         1.1974144020       5.8661085909       6.5585087863
 C         1.5965525359       4.5625289040       7.2872319848
 C         1.9956906699       4.8884238257       8.7446783817
 C         2.3948288039       3.5848441389       9.4734015802
 C         7.5836245457       1.3035796869      -9.4734015802
 C         5.9870720098       3.2589492172      -9.4734015802
 C         6.3862101437       1.9553695303      -8.7446783817
 C         6.7853482777       2.2812644520      -7.2872319848
 C         7.1844864117       0.9776847651      -6.5585087863
 C         7.5836245457       1.3035796869      -5.1010623893
 C         4.3905194738       5.2143187474      -9.4734015802
 C         4.7896576078       3.9107390606      -8.7446783817
 C         5.1887957418       4.2366339823      -7.2872319848
 C         5.5879338758       2.9330542954      -6.5585087863
 C         5.9870720098       3.2589492172      -5.1010623893
 C         6.3862101437       1.9553695303      -4.3723391909
 C         6.7853482777       2.2812644520      -2.9148927939
 C         7.1844864117       0.9776847651      -2.1861695954
 C         7.5836245457       1.3035796869      -0.7287231985
 C         2.7939669379       7.1696882777      -9.4734015802
 C         3.1931050719       5.8661085909      -8.7446783817
 C         3.5922432059       6.1920035126      -7.2872319848
 C         3.9913813398       4.8884238257      -6.5585087863
 C         4.3905194738       5.2143187474      -5.1010623893
 C         4.7896576078       3.9107390606      -4.3723391909
 C         5.1887957418       4.2366339823      -2.9148927939
 C         5.5879338758       2.9330542954      -2.1861695954
 C         5.9870720098       3.2589492172      -0.7287231985
 C         6.3862101437       1.9553695303      -0.0000000000
 C         6.7853482777       2.2812644520       1.4574463970
 C         7.1844864117       0.9776847651       2.1861695954
 C         7.5836245457       1.3035796869       3.6436159924
 C         2.3948288039       6.8437933560      -6.5585087863
 C         2.7939669379       7.1696882777      -5.1010623893
 C         3.1931050719       5.8661085909      -4.3723391909
 C         3.5922432059       6.1920035126      -2.9148927939
 C         3.9913813398       4.8884238257      -2.1861695954
 C         4.3905194738       5.2143187474      -0.7287231985
 C         4.7896576078       3.9107390606      -0.0000000000
 C         5.1887957418       4.2366339823       1.4574463970
 C         5.5879338758       2.9330542954       2.1861695954
 C         5.9870720098       3.2589492172       3.6436159924
 C         6.3862101437       1.9553695303       4.3723391909
 C         6.7853482777       2.2812644520       5.8297855878
 C         7.1844864117       0.9776847651       6.5585087863
 C         7.5836245457       1.3035796869       8.0159551833
 C         2.3948288039       6.8437933560      -2.1861695954
 C         2.7939669379       7.1696882777      -0.7287231985
 C         3.1931050719       5.8661085909      -0.0000000000
 C         3.5922432059       6.1920035126       1.4574463970
 C         3.9913813398       4.8884238257       2.1861695954
 C         4.3905194738       5.2143187474       3.6436159924
 C         4.7896576078       3.9107390606       4.3723391909
 C         5.1887957418       4.2366339823       5.8297855878
 C         5.5879338758       2.9330542954       6.5585087863
 C         5.9870720098       3.2589492172       8.0159551833
 C         6.3862101437       1.9553695303       8.7446783817
 C         2.3948288039       6.8437933560       2.1861695954
 C         2.7939669379       7.1696882777       3.6436159924
 C         3.1931050719       5.8661085909       4.3723391909
 C         3.5922432059       6.1920035126       5.8297855878
 C         3.9913813398       4.8884238257       6.5585087863
 C         4.3905194738       5.2143187474       8.0159551833
 C         4.7896576078       3.9107390606       8.7446783817
 C         2.3948288039       6.8437933560       6.5585087863
 C         2.7939669379       7.1696882777       8.0159551833
 C         3.1931050719       5.8661085909       8.7446783817
 C         7.1844864117       4.2366339823      -9.4734015802
 C         7.5836245457       4.5625289040      -8.0159551833
 C         7.9827626797       3.2589492172      -7.2872319848
 C         8.3819008137       3.5848441389      -5.8297855878
 C         5.5879338758       6.1920035126      -9.4734015802
 C         5.9870720098       6.5178984343      -8.0159551833
 C         6.3862101437       5.2143187474      -7.2872319848
 C         6.7853482777       5.5402136692      -5.8297855878
 C         7.1844864117       4.2366339823      -5.1010623893
 C         7.5836245457       4.5625289040      -3.6436159924
 C         7.9827626797       3.2589492172      -2.9148927939
 C         8.3819008137       3.5848441389      -1.4574463970
 C         4.7896576078       7.1696882777      -7.2872319848
 C         5.1887957418       7.4955831995      -5.8297855878
 C         5.5879338758       6.1920035126      -5.1010623893
 C         5.9870720098       6.5178984343      -3.6436159924
 C         6.3862101437       5.2143187474      -2.9148927939
 C         6.7853482777       5.5402136692      -1.4574463970
 C         7.1844864117       4.2366339823      -0.7287231985
 C         7.5836245457       4.5625289040       0.7287231985
 C         7.9827626797       3.2589492172       1.4574463970
 C         8.3819008137       3.5848441389       2.9148927939
 C         4.7896576078       7.1696882777      -2.9148927939
 C         5.1887957418       7.4955831995      -1.4574463970
 C         5.5879338758       6.1920035126      -0.7287231985
 C         5.9870720098       6.5178984343       0.7287231985
 C         6.3862101437       5.2143187474       1.4574463970
 C         6.7853482777       5.5402136692       2.9148927939
 C         7.1844864117       4.2366339823       3.6436159924
 C         7.5836245457       4.5625289040       5.1010623893
 C         7.9827626797       3.2589492172       5.8297855878
 C         8.3819008137       3.5848441389       7.2872319848
 C         4.7896576078       7.1696882777       1.4574463970
 C         5.1887957418       7.4955831995       2.9148927939
 C         5.5879338758       6.1920035126       3.6436159924
 C         5.9870720098       6.5178984343       5.1010623893
 C         6.3862101437       5.2143187474       5.8297855878
 C         6.7853482777       5.5402136692       7.2872319848
 C         7.1844864117       4.2366339823       8.0159551833
 C         7.5836245457       4.5625289040       9.4734015802
 C         4.7896576078       7.1696882777       5.8297855878
 C         5.1887957418       7.4955831995       7.2872319848
 C         5.5879338758       6.1920035126       8.0159551833
 C         5.9870720098       6.5178984343       9.4734015802
 C         8.3819008137       6.8437933560      -8.7446783817
 C         8.7810389476       5.5402136692      -8.0159551833
 C         7.1844864117       7.4955831995      -8.0159551833
 C         7.9827626797       6.5178984343      -5.8297855878
 C         8.3819008137       6.8437933560      -4.3723391909
 C         8.7810389476       5.5402136692      -3.6436159924
 C         7.1844864117       7.4955831995      -3.6436159924
 C         7.9827626797       6.5178984343      -1.4574463970
 C         8.3819008137       6.8437933560      -0.0000000000
 C         8.7810389476       5.5402136692       0.7287231985
 C         7.1844864117       7.4955831995       0.7287231985
 C         7.9827626797       6.5178984343       2.9148927939
 C         8.3819008137       6.8437933560       4.3723391909
 C         8.7810389476       5.5402136692       5.1010623893
 C         7.1844864117       7.4955831995       5.1010623893
 C         7.9827626797       6.5178984343       7.2872319848
 C         8.3819008137       6.8437933560       8.7446783817
 C         8.7810389476       5.5402136692       9.4734015802
 C         7.1844864117       7.4955831995       9.4734015802
