92
TV: (12.4298473918 -0.0000000000 -0.0000000000) (7.9099028857 9.5882502326 -0.0000000000)
 O         3.9549514428       1.8643819897       3.5334031575
 O         7.3449098224       0.5326805685       4.4167539469
 O         5.0849375694       5.3268056848       4.4167539469
 Re        0.0000000000       0.0000000000       0.0000000000
 O         0.5649930633       0.2663402842      -1.7667015787
 O         3.9549514428       0.3995104264       1.3250261841
 O         2.8249653163       2.7965729845       1.3250261841
 Re        4.5199445061       2.1307222739       1.7667015787
 O         5.0849375694       2.3970625581      -0.0000000000
 O         5.0849375694       3.8619341215       2.2083769734
 O         6.2149236959       1.4648715633       2.2083769734
 Re        7.9099028857       0.7990208527       2.6500523681
 O         8.4748959490       1.0653611370       0.8833507894
 O         8.4748959490       2.5302327003       3.0917277628
 O         9.6048820755       0.1331701421       3.0917277628
 O        11.8648543285       1.1985312791       3.9750785522
 Re        5.6499306326       5.5931459690       2.6500523681
 O         6.2149236959       5.8594862532       0.8833507894
 O         6.2149236959       7.3243578166       3.0917277628
 O         7.3449098224       4.9272952584       3.0917277628
 Re        9.0398890122       4.2614445478       3.5334031575
 O         9.6048820755       4.5277848320       1.7667015787
 O         9.6048820755       5.9926563954       3.9750785522
 O        10.7348682020       3.5955938372       3.9750785522
 Re       12.4298473918       2.9297431266       4.4167539469
 O        12.9948404551       3.1960834109       2.6500523681
 O        12.9948404551       4.6609549742       4.8584293416
 O        14.1248265816       2.2638924160       4.8584293416
 O         8.4748959490       8.3897189535       3.9750785522
 Re       10.1698751388       7.7238682429       4.4167539469
 O        10.7348682020       7.9902085271       2.6500523681
 O        10.7348682020       9.4550800905       4.8584293416
 O        11.8648543285       7.0580175323       4.8584293416
 O        14.1248265816       6.6585071060       3.5334031575
 Re        1.1299861265       0.5326805685      -3.5334031575
 O         5.0849375694       0.9321909948      -2.2083769734
 O         3.9549514428       3.3292535530      -2.2083769734
 Re        5.6499306326       2.6634028424      -1.7667015787
 O         6.2149236959       2.9297431266      -3.5334031575
 O         6.2149236959       4.3946146899      -1.3250261841
 O         7.3449098224       1.9975521318      -1.3250261841
 Re        9.0398890122       1.3317014212      -0.8833507894
 O         9.6048820755       1.5980417054      -2.6500523681
 O         9.6048820755       3.0629132687      -0.4416753947
 O        10.7348682020       0.6658507106      -0.4416753947
 O        12.9948404551       1.7312118475       0.4416753947
 Re        6.7799167592       6.1258265375      -0.8833507894
 O         7.3449098224       6.3921668217      -2.6500523681
 O         7.3449098224       7.8570383850      -0.4416753947
 O         8.4748959490       5.4599758269      -0.4416753947
 Re       10.1698751388       4.7941251163      -0.0000000000
 O        10.7348682020       5.0604654005      -1.7667015787
 O        10.7348682020       6.5253369638       0.4416753947
 O        11.8648543285       4.1282744057       0.4416753947
 Re       13.5598335183       3.4624236951       0.8833507894
 O        14.1248265816       3.7287639793      -0.8833507894
 O        14.1248265816       5.1936355426       1.3250261841
 O         9.6048820755       8.9223995220       0.4416753947
 Re       11.2998612653       8.2565488114       0.8833507894
 O        11.8648543285       8.5228890956      -0.8833507894
 O        12.9948404551       7.5906981008       1.3250261841
 Re       14.6898196449       6.9248473902       1.7667015787
 O        15.2548127081       7.1911876744      -0.0000000000
 O        15.2548127081       8.6560592377       2.2083769734
 O        16.3847988347       6.2589966796       2.2083769734
 Re       19.2097641510       9.0555696641       3.5334031575
 O        19.7747572142       9.3219099483       1.7667015787
 O         9.6048820755       0.1331701421      -4.8584293416
 O         7.3449098224       4.9272952584      -4.8584293416
 O         8.4748959490       2.5302327003      -4.8584293416
 Re       10.1698751388       1.8643819897      -4.4167539469
 O        10.7348682020       3.5955938372      -3.9750785522
 O        11.8648543285       1.1985312791      -3.9750785522
 O        14.1248265816       2.2638924160      -3.0917277628
 O         6.2149236959       7.3243578166      -4.8584293416
 Re        7.9099028857       6.6585071060      -4.4167539469
 O         8.4748959490       8.3897189535      -3.9750785522
 O         9.6048820755       5.9926563954      -3.9750785522
 Re       11.2998612653       5.3268056848      -3.5334031575
 O        11.8648543285       7.0580175323      -3.0917277628
 O        12.9948404551       4.6609549742      -3.0917277628
 Re       14.6898196449       3.9951042636      -2.6500523681
 O        15.2548127081       4.2614445478      -4.4167539469
 O        15.2548127081       5.7263161111      -2.2083769734
 O        10.7348682020       9.4550800905      -3.0917277628
 Re       12.4298473918       8.7892293799      -2.6500523681
 O        12.9948404551       9.0555696641      -4.4167539469
 O        14.1248265816       8.1233786693      -2.2083769734
 Re       15.8198057714       7.4575279587      -1.7667015787
 O        16.3847988347       7.7238682429      -3.5334031575
 O        16.3847988347       9.1887398062      -1.3250261841
 O        17.5147849612       6.7916772481      -1.3250261841
